①AMD zen4：
https://www.amd.com/content/dam/amd/en/documents/epyc-technical-docs/tuning-guides/58002_amd-epyc-9004-tg-hpc.pdf
https://www.amd.com/content/dam/amd/en/documents/products/epyc/4th-gen-amd-epyc-processor-architecture-whitepaper.pdf

②AMD zen5:
架构导入：https://www.amd.com/content/dam/amd/en/documents/epyc-technical-docs/user-guides/58462_amd-epyc-9005-tg-architecture-overview.pdf


架构性能测试(与Intel 5系对比)：
https://www.amd.com/content/dam/amd/en/documents/epyc-technical-docs/performance-briefs/amd-epyc-9005-pb-ansys-cfx.pdf
https://www.amd.com/content/dam/amd/en/documents/epyc-technical-docs/performance-briefs/amd-epyc-9005-pb-ansys-ls-dyna.pdf
https://www.amd.com/content/dam/amd/en/documents/epyc-technical-docs/performance-briefs/amd-epyc-9005-pb-ansys-mechanical.pdf
https://www.amd.com/content/dam/amd/en/documents/epyc-technical-docs/performance-briefs/amd-epyc-9005-pb-altair-acusolve.pdf
https://www.amd.com/content/dam/amd/en/documents/epyc-technical-docs/performance-briefs/amd-epyc-9005-pb-ansys-fluent.pdf

③Intel架构：
Skylake：https://en.wikipedia.org/wiki/Skylake_(microarchitecture)
Cascadelake：https://en.wikipedia.org/wiki/Cascade_Lake
Icelake:https://en.wikipedia.org/wiki/Ice_Lake_(microprocessor)
Sapphire Rapids:https://en.wikipedia.org/wiki/Sapphire_Rapids
Emerald Rapids:https://en.wikipedia.org/wiki/Emerald_Rapids
Granite Rapids：https://en.wikipedia.org/wiki/Granite_Rapids

③Intel架构解读：https://blog.csdn.net/qq_43727392/article/details/127508217?ops_request_misc=%257B%2522request%255Fid%2522%253A%2522B6E812F6-42B1-4436-8EC6-22A04DDBF032%2522%252C%2522scm%2522%253A%252220140713.130102334.pc%255Fall.%2522%257D&request_id=B6E812F6-42B1-4436-8EC6-22A04DDBF032&biz_id=0&utm_medium=distribute.pc_search_result.none-task-blog-2~all~first_rank_ecpm_v1~rank_v31_ecpm-1-127508217-null-null.142^v100^pc_search_result_base3&utm_term=intel%20cpu%20microarchitecture%E6%9B%B4%E6%96%B0&spm=1018.2226.3001.4187
